%mem=16GB
%chk=name.chk
%nprocshared=8
# opt freq b3lyp/6-311g(d,p) geom=connectivity

Title Card Required

0 1
 C                -1.07680   1.10245   0.10484
 C                 0.14225   1.77186   0.10377
 C                 1.30390   1.00748   0.10465
 C                 1.25179  -0.37614   0.10484
 C                -1.12895  -0.28117   0.10464
 C                 0.03267  -1.04557   0.10377
 C                 0.21831   3.30715   0.09956
 C                -0.43101   3.90394  -1.17197
 C                -0.41438   3.91112   1.37621
 C                -0.04335  -2.58083   0.09956
 C                 0.60596  -3.17763  -1.17197
 C                 0.58933  -3.18481   1.37620
 H                -2.00164   1.66386   0.10482
 H                 2.26703   1.50194   0.10435
 H                 2.17658  -0.93754   0.10483
 H                -2.09208  -0.77563   0.10434
 H                 1.27278   3.58080   0.09205
 H                -0.30825   4.98277  -1.18614
 H                 0.03207   3.49480  -2.06466
 H                -1.49293   3.68314  -1.20601
 H                -0.29514   4.99055   1.38051
 H                -1.47502   3.68698   1.42747
 H                 0.06324   3.51035   2.26520
 H                -1.09783  -2.85449   0.09206
 H                 0.48320  -4.25647  -1.18614
 H                 0.14288  -2.76848  -2.06466
 H                 1.66788  -2.95684  -1.20601
 H                 0.47009  -4.26425   1.38051
 H                 1.64998  -2.96067   1.42747
 H                 0.11171  -2.78404   2.26520

 1 5 1.5 2 1.5 13 1.0
 2 3 1.5 7 1.0
 3 4 1.5 14 1.0
 4 6 1.5 15 1.0
 5 6 1.5 16 1.0
 6 10 1.0
 7 8 1.0 9 1.0 17 1.0
 8 18 1.0 19 1.0 20 1.0
 9 21 1.0 22 1.0 23 1.0
 10 11 1.0 12 1.0 24 1.0
 11 25 1.0 26 1.0 27 1.0
 12 28 1.0 29 1.0 30 1.0
 13
 14
 15
 16
 17
 18
 19
 20
 21
 22
 23
 24
 25
 26
 27
 28
 29
 30
