%mem=8GB
%chk=64_17_5.chk
%nprocshared=8
#T opt freq b3lyp/3-21g pop=(full,nbo) geom=(connectivity,printinputorient)

Title Card Required

0 1
 C                -0.58112  -0.87961   0.00000
 C                -0.59237   0.66190   0.00000
 O                -1.95834   1.10323  -0.00000
 H                 0.44042  -1.24725   0.00000
 H                -1.08979  -1.25886   0.88087
 H                -1.08979  -1.25886  -0.88086
 H                -0.05638   1.03170   0.88344
 H                -0.05638   1.03170  -0.88343
 H                -1.89024   2.09184  -0.00000

 1 2 1.0 4 1.0 5 1.0 6 1.0
 2 3 1.0 7 1.0 8 1.0
 3 9 1.0
 4
 5
 6
 7
 8
 9

