%mem=8GB
%chk=50_04_4.chk
%nprocshared=8
#T opt freq b3lyp/3-21g pop=(full,nbo) geom=(connectivity,printinputorient)

Title Card Required

0 1
 C                 -5.94426972    1.29324875   -0.04636366
 C                 -4.96173116    2.43940838    0.21120734
 C                 -5.39865375   -0.13303231   -0.21420182
 O                 -7.18009026    1.51905498   -0.11977932
 C                 -3.62360071    2.10116024   -0.46133593
 C                 -3.06188281    0.79002439    0.12349091
 C                 -4.06805488   -0.38037493   -0.08388113
 C                 -1.73629022    0.47485267   -0.59035184
 C                 -2.81381980    0.97209954    1.63121025
 C                 -3.59030170   -1.85410895   -0.12107978
 C                 -1.27078458   -0.93333494   -0.17969742
 C                 -2.21333119   -1.96540940   -0.80253608
 C                  0.16158227   -1.11031745   -0.66784408
 C                 -0.65996390    1.54611869   -0.22082116
 C                  0.86169835    1.22651881   -0.29689019
 C                  1.06775315   -0.22115503    0.14086559
 C                  0.74021452   -0.31543360    1.64164868
 C                  2.49054856   -0.77380850   -0.10499699
 C                  0.76612961   -2.49554922   -0.47155693
 O                 -1.03120939    2.69206084    0.14442849
 C                  2.27421360   -2.21726732   -0.65509446
 C                  3.28933033   -0.80423998    1.21010843
 O                  3.19433903    0.03016793   -1.05575261
 C                  4.78718228   -0.45298014    1.20205929
 O                  2.71757964   -1.11521127    2.28752218
 O                  5.03069743    0.53659016    0.19586005
 C                  6.42028593    0.87536057    0.16287854
 C                  7.06035358    1.36419325   -1.15140754
 O                  7.11870873    0.77446085    1.20519463
 H                 -5.35091487    3.34686536   -0.19933398
 H                 -4.81646499    2.55962338    1.26465650
 H                 -6.06837853   -0.93638935   -0.43537496
 H                 -3.77463074    1.98544804   -1.51357519
 H                 -2.92784721    2.89275653   -0.28475942
 H                 -1.89209434    0.49715827   -1.64876974
 H                 -2.41564289    0.06652677    2.03907097
 H                 -3.73748890    1.20588435    2.11798852
 H                 -2.11822988    1.77034927    1.78410282
 H                 -4.30086233   -2.43958734   -0.66651107
 H                 -3.51469239   -2.22137347    0.88067657
 H                 -1.29762165   -1.03499280    0.88411279
 H                 -2.31359251   -1.77662053   -1.85098797
 H                 -1.81805881   -2.94764780   -0.65437441
 H                  0.18377426   -0.85647474   -1.70732579
 H                  1.40333466    1.88189886    0.35394188
 H                  1.20892524    1.35517952   -1.29929291
 H                  0.90432888   -1.31728774    1.97877923
 H                  1.37054255    0.35455487    2.18814698
 H                 -0.28390548   -0.04954231    1.80081560
 H                  0.55250138   -2.88319218    0.50292922
 H                  0.40296902   -3.18999059   -1.19917312
 H                  2.54533356   -2.27186841   -1.68828466
 H                  2.85986142   -2.92438515   -0.10564732
 H                  2.71634988    0.03785943   -1.88779691
 H                  5.07009128   -0.06916598    2.16052379
 H                  5.36011332   -1.33081285    0.98733879
 H                  8.09501764    1.09201742   -1.16781219
 H                  6.55986474    0.91132496   -1.98165218
 H                  6.97088474    2.42878719   -1.21719530

 1 2 1.0 3 1.0 4 2.0
 2 5 1.0 30 1.0 31 1.0
 3 7 2.0 32 1.0
 4
 5 6 1.0 33 1.0 34 1.0
 6 7 1.0 8 1.0 9 1.0
 7 10 1.0
 8 11 1.0 14 1.0 35 1.0
 9 36 1.0 37 1.0 38 1.0
 10 12 1.0 39 1.0 40 1.0
 11 12 1.0 13 1.0 41 1.0
 12 42 1.0 43 1.0
 13 16 1.0 19 1.0 44 1.0
 14 15 1.0 20 2.0
 15 16 1.0 45 1.0 46 1.0
 16 17 1.0 18 1.0
 17 47 1.0 48 1.0 49 1.0
 18 21 1.0 22 1.0 23 1.0
 19 21 1.0 50 1.0 51 1.0
 20
 21 52 1.0 53 1.0
 22 24 1.0 25 2.0
 23 54 1.0
 24 26 1.0 55 1.0 56 1.0
 25
 26 27 1.0
 27 28 1.0 29 2.0
 28 57 1.0 58 1.0 59 1.0
 29
 30
 31
 32
 33
 34
 35
 36
 37
 38
 39
 40
 41
 42
 43
 44
 45
 46
 47
 48
 49
 50
 51
 52
 53
 54
 55
 56
 57
 58
 59

