%mem=8GB
%chk=67_63_0.chk
%nprocshared=8
#T opt freq b3lyp/3-21g pop=(full,nbo) geom=(connectivity,printinputorient)

Title Card Required

0 1
 C                -0.95950  -1.25475   0.30906
 C                -0.92486   0.29040   0.30047
 C                 0.52938   0.82877   0.31580
 O                -1.64038   0.71840  -0.87051
 H                -1.98777  -1.60273   0.30108
 H                -0.45522  -1.64874  -0.56781
 H                -0.46807  -1.63984   1.19714
 H                -1.43247   0.65220   1.20570
 H                 0.53420   1.91523   0.31675
 H                 1.04815   0.48541   1.20511
 H                 1.07198   0.48312  -0.55859
 H                -1.62672   1.70749  -0.81343

 1 2 1.0 5 1.0 6 1.0 7 1.0
 2 3 1.0 4 1.0 8 1.0
 3 9 1.0 10 1.0 11 1.0
 4 12 1.0
 5
 6
 7
 8
 9
 10
 11
 12

